data_Adamant4CO2H\I41-A\-\1
_audit_creation_date              2018-06-12
_audit_creation_method            'Materials Studio'
_symmetry_space_group_name_H-M    'I41/A'
_symmetry_Int_Tables_number       88
_symmetry_cell_setting            tetragonal
loop_
_symmetry_equiv_pos_as_xyz
  x,y,z
  -x+1/2,-y+1/2,z+1/2
  -y,x+1/2,z+1/4
  y+1/2,-x,z+3/4
  -x,-y+1/2,-z+1/4
  x+1/2,y,-z+3/4
  y,-x,-z
  -y+1/2,x+1/2,-z+1/2
  x+1/2,y+1/2,z+1/2
  -x,-y,z
  -y+1/2,x,z+3/4
  y,-x+1/2,z+1/4
  -x+1/2,-y,-z+3/4
  x,y+1/2,-z+1/4
  y+1/2,-x+1/2,-z+1/2
  -y,x,-z
_cell_length_a                    16.1089
_cell_length_b                    16.1089
_cell_length_c                    23.3234
_cell_angle_alpha                 90.0000
_cell_angle_beta                  90.0000
_cell_angle_gamma                 90.0000
loop_
_atom_site_label
_atom_site_type_symbol
_atom_site_fract_x
_atom_site_fract_y
_atom_site_fract_z
_atom_site_U_iso_or_equiv
_atom_site_adp_type
_atom_site_occupancy
C1     C     0.18225   0.77585   1.00057   0.00000  Uiso   1.00
C2     C     0.18908   0.69741   0.96314   0.00000  Uiso   1.00
C3     C     0.26826   0.69856   0.92743   0.00000  Uiso   1.00
O4     O     0.33438   0.72296   0.95605   0.00000  Uiso   1.00
O5     O     0.27089   0.67660   0.87758   0.00000  Uiso   1.00
H6     H     0.11799   0.64372   0.89878   0.00000  Uiso   1.00
H7     H     0.18120   0.82497   0.97682   0.00000  Uiso   1.00
H8     H     0.23228   0.78153   1.02387   0.00000  Uiso   1.00
H9     H     0.38036   0.72321   0.92916   0.00000  Uiso   1.00
C10    C     0.02639   0.76415   0.99901   0.00000  Uiso   1.00
C11    C     0.10313   0.77042   1.03813   0.00000  Uiso   1.00
C12    C     0.10037   0.84905   1.07437   0.00000  Uiso   1.00
O13    O     0.07722   0.91561   1.04572   0.00000  Uiso   1.00
O14    O     0.12011   0.85093   1.12467   0.00000  Uiso   1.00
H15    H     0.15398   0.69836   1.10307   0.00000  Uiso   1.00
H16    H    -0.02376   0.76273   1.02171   0.00000  Uiso   1.00
H17    H     0.02172   0.81453   0.97597   0.00000  Uiso   1.00
H18    H     0.07576   0.96117   1.07292   0.00000  Uiso   1.00
C19    C     0.03808   0.60827   0.99969   0.00000  Uiso   1.00
C20    C     0.03351   0.68560   0.96101   0.00000  Uiso   1.00
C21    C    -0.04348   0.68338   0.92312   0.00000  Uiso   1.00
O22    O    -0.11126   0.65979   0.95018   0.00000  Uiso   1.00
O23    O    -0.04315   0.70388   0.87294   0.00000  Uiso   1.00
H24    H     0.10838   0.73744   0.89799   0.00000  Uiso   1.00
H25    H     0.04052   0.55847   0.97668   0.00000  Uiso   1.00
H26    H    -0.01329   0.60325   1.02163   0.00000  Uiso   1.00
H27    H    -0.15560   0.65874   0.92202   0.00000  Uiso   1.00
C28    C     0.19391   0.61999   1.00239   0.00000  Uiso   1.00
C29    C     0.11491   0.61482   1.03938   0.00000  Uiso   1.00
C30    C     0.11548   0.53727   1.07675   0.00000  Uiso   1.00
O31    O     0.14029   0.46990   1.04971   0.00000  Uiso   1.00
O32    O     0.09277   0.53684   1.12646   0.00000  Uiso   1.00
H33    H     0.06028   0.68874   1.10181   0.00000  Uiso   1.00
H34    H     0.24267   0.62209   1.02646   0.00000  Uiso   1.00
H35    H     0.19992   0.56895   0.98019   0.00000  Uiso   1.00
H36    H     0.14011   0.42514   1.07756   0.00000  Uiso   1.00
C37    C     0.11242   0.69096   0.92417   0.00000  Uiso   1.00
C38    C     0.10789   0.69318   1.07666   0.00000  Uiso   1.00
loop_
_geom_bond_atom_site_label_1
_geom_bond_atom_site_label_2
_geom_bond_distance
_geom_bond_site_symmetry_2
_ccdc_geom_bond_type
C1     C2      1.540   .     S
C1     H7      0.966   .     S
C1     H8      0.976   .     S
C1     C11     1.549   .     S
C2     C3      1.523   .     S
C2     C37     1.537   .     S
C2     C28     1.549   .     S
C3     O4      1.317   .     S
C3     O5      1.216   .     D
O4     H9      0.970   .     S
H6     C37     0.968   .     S
C10    C11     1.540   .     S
C10    H16     0.966   .     S
C10    H17     0.976   .     S
C10    C20     1.549   .     S
C11    C12     1.523   .     S
C11    C38     1.537   .     S
C12    O13     1.317   .     S
C12    O14     1.216   .     D
O13    H18     0.970   .     S
H15    C38     0.968   .     S
C19    C20     1.540   .     S
C19    H25     0.966   .     S
C19    H26     0.976   .     S
C19    C29     1.549   .     S
C20    C21     1.523   .     S
C20    C37     1.537   .     S
C21    O22     1.317   .     S
C21    O23     1.216   .     D
O22    H27     0.970   .     S
H24    C37     0.968   .     S
C28    C29     1.540   .     S
C28    H34     0.966   .     S
C28    H35     0.976   .     S
C29    C30     1.523   .     S
C29    C38     1.537   .     S
C30    O31     1.317   .     S
C30    O32     1.216   .     D
O31    H36     0.970   .     S
H33    C38     0.968   .     S
