data_Adamant4CO2H\PBCN\-\190
_audit_creation_date              2018-06-12
_audit_creation_method            'Materials Studio'
_symmetry_space_group_name_H-M    'PBCN'
_symmetry_Int_Tables_number       60
_symmetry_cell_setting            orthorhombic
loop_
_symmetry_equiv_pos_as_xyz
  x,y,z
  -x+1/2,-y+1/2,z+1/2
  -x,y,-z+1/2
  x+1/2,-y+1/2,-z
  -x,-y,-z
  x+1/2,y+1/2,-z+1/2
  x,-y,z+1/2
  -x+1/2,y+1/2,z
_cell_length_a                    24.0139
_cell_length_b                    15.7454
_cell_length_c                    15.7538
_cell_angle_alpha                 90.0000
_cell_angle_beta                  90.0000
_cell_angle_gamma                 90.0000
loop_
_atom_site_label
_atom_site_type_symbol
_atom_site_fract_x
_atom_site_fract_y
_atom_site_fract_z
_atom_site_U_iso_or_equiv
_atom_site_adp_type
_atom_site_occupancy
C1     C     0.37714   0.02126  -0.07970   0.00000  Uiso   1.00
C2     C     0.41341   0.10190  -0.07972   0.00000  Uiso   1.00
C3     C     0.44947   0.10639  -0.15915   0.00000  Uiso   1.00
O4     O     0.42290   0.08605  -0.22941   0.00000  Uiso   1.00
O5     O     0.49786   0.12912  -0.15835   0.00000  Uiso   1.00
H6     H     0.47452   0.15188  -0.00094   0.00000  Uiso   1.00
H7     H     0.40030  -0.02889  -0.08116   0.00000  Uiso   1.00
H8     H     0.35541   0.01891  -0.13203   0.00000  Uiso   1.00
H9     H     0.44981   0.08910  -0.27526   0.00000  Uiso   1.00
C10    C     0.37590   0.02225   0.08012   0.00000  Uiso   1.00
C11    C     0.33927   0.02113  -0.00010   0.00000  Uiso   1.00
C12    C     0.30424  -0.05941  -0.00422   0.00000  Uiso   1.00
O13    O     0.33181  -0.12889   0.01584   0.00000  Uiso   1.00
O14    O     0.25575  -0.06009  -0.02643   0.00000  Uiso   1.00
H15    H     0.27694   0.09808  -0.04943   0.00000  Uiso   1.00
H16    H     0.35298   0.02011   0.13048   0.00000  Uiso   1.00
H17    H     0.39832  -0.02944   0.08224   0.00000  Uiso   1.00
H18    H     0.30548  -0.17557   0.01307   0.00000  Uiso   1.00
C19    C     0.37506   0.18217   0.07910   0.00000  Uiso   1.00
C20    C     0.41272   0.10302   0.07985   0.00000  Uiso   1.00
C21    C     0.44816   0.09998   0.15999   0.00000  Uiso   1.00
O22    O     0.42065   0.11923   0.22971   0.00000  Uiso   1.00
O23    O     0.49693   0.07922   0.16016   0.00000  Uiso   1.00
H24    H     0.47535   0.05555   0.00230   0.00000  Uiso   1.00
H25    H     0.39733   0.23324   0.08101   0.00000  Uiso   1.00
H26    H     0.35285   0.18363   0.13100   0.00000  Uiso   1.00
H27    H     0.44721   0.11726   0.27609   0.00000  Uiso   1.00
C28    C     0.37520   0.18115  -0.08073   0.00000  Uiso   1.00
C29    C     0.33789   0.18077  -0.00124   0.00000  Uiso   1.00
C30    C     0.30143   0.25987   0.00216   0.00000  Uiso   1.00
O31    O     0.32794   0.33044  -0.01736   0.00000  Uiso   1.00
O32    O     0.25276   0.25857   0.02342   0.00000  Uiso   1.00
H33    H     0.27650   0.10132   0.04685   0.00000  Uiso   1.00
H34    H     0.35269   0.18237  -0.13154   0.00000  Uiso   1.00
H35    H     0.39672   0.23373  -0.08242   0.00000  Uiso   1.00
H36    H     0.30080   0.37604  -0.01512   0.00000  Uiso   1.00
C37    C     0.44988   0.10321   0.00043   0.00000  Uiso   1.00
C38    C     0.30177   0.10021  -0.00104   0.00000  Uiso   1.00
loop_
_geom_bond_atom_site_label_1
_geom_bond_atom_site_label_2
_geom_bond_distance
_geom_bond_site_symmetry_2
_ccdc_geom_bond_type
C1     C2      1.540   .     S
C1     H7      0.966   .     S
C1     H8      0.976   .     S
C1     C11     1.549   .     S
C2     C3      1.523   .     S
C2     C37     1.537   .     S
C2     C28     1.549   .     S
C3     O4      1.317   .     S
C3     O5      1.216   .     D
O4     H9      0.970   .     S
H6     C37     0.968   .     S
C10    C11     1.540   .     S
C10    H16     0.966   .     S
C10    H17     0.976   .     S
C10    C20     1.549   .     S
C11    C12     1.523   .     S
C11    C38     1.537   .     S
C12    O13     1.317   .     S
C12    O14     1.216   .     D
O13    H18     0.970   .     S
H15    C38     0.968   .     S
C19    C20     1.540   .     S
C19    H25     0.966   .     S
C19    H26     0.976   .     S
C19    C29     1.549   .     S
C20    C21     1.523   .     S
C20    C37     1.537   .     S
C21    O22     1.317   .     S
C21    O23     1.216   .     D
O22    H27     0.970   .     S
H24    C37     0.968   .     S
C28    C29     1.540   .     S
C28    H34     0.966   .     S
C28    H35     0.976   .     S
C29    C30     1.523   .     S
C29    C38     1.537   .     S
C30    O31     1.317   .     S
C30    O32     1.216   .     D
O31    H36     0.970   .     S
H33    C38     0.968   .     S
