data_Adamant4CO2H\P21-C\-\1
_audit_creation_date              2018-06-11
_audit_creation_method            'Materials Studio'
_symmetry_space_group_name_H-M    'P21/C'
_symmetry_Int_Tables_number       14
_symmetry_cell_setting            monoclinic
loop_
_symmetry_equiv_pos_as_xyz
  x,y,z
  -x,y+1/2,-z+1/2
  -x,-y,-z
  x,-y+1/2,z+1/2
_cell_length_a                    7.2828
_cell_length_b                    22.9380
_cell_length_c                    7.2751
_cell_angle_alpha                 90.0000
_cell_angle_beta                  90.0540
_cell_angle_gamma                 90.0000
loop_
_atom_site_label
_atom_site_type_symbol
_atom_site_fract_x
_atom_site_fract_y
_atom_site_fract_z
_atom_site_U_iso_or_equiv
_atom_site_adp_type
_atom_site_occupancy
C1     C     0.19308   0.87461   0.23996   0.00000  Uiso   1.00
C2     C     0.10185   0.83590   0.09304   0.00000  Uiso   1.00
C3     C    -0.04929   0.79843   0.17655   0.00000  Uiso   1.00
O4     O    -0.15580   0.82672   0.29246   0.00000  Uiso   1.00
O5     O    -0.07328   0.74757   0.13605   0.00000  Uiso   1.00
H6     H     0.19067   0.77116  -0.08551   0.00000  Uiso   1.00
H7     H     0.24742   0.85083   0.33516   0.00000  Uiso   1.00
H8     H     0.09922   0.89759   0.30260   0.00000  Uiso   1.00
H9     H    -0.24352   0.79870   0.34012   0.00000  Uiso   1.00
C10    C     0.48629   0.87527   0.05683   0.00000  Uiso   1.00
C11    C     0.33956   0.91393   0.14813   0.00000  Uiso   1.00
C12    C     0.42309   0.95137   0.29961   0.00000  Uiso   1.00
O13    O     0.53901   0.92306   0.40626   0.00000  Uiso   1.00
O14    O     0.38261   1.00222   0.32374   0.00000  Uiso   1.00
H15    H     0.16105   0.97868   0.05923   0.00000  Uiso   1.00
H16    H     0.58131   0.89907   0.00259   0.00000  Uiso   1.00
H17    H     0.54897   0.85226   0.15078   0.00000  Uiso   1.00
H18    H     0.58666   0.95106   0.49421   0.00000  Uiso   1.00
C19    C     0.30307   0.87468  -0.23686   0.00000  Uiso   1.00
C20    C     0.39445   0.83598  -0.09001   0.00000  Uiso   1.00
C21    C     0.54573   0.79858  -0.17359   0.00000  Uiso   1.00
O22    O     0.65213   0.82693  -0.28945   0.00000  Uiso   1.00
O23    O     0.56992   0.74772  -0.13319   0.00000  Uiso   1.00
H24    H     0.30588   0.77117   0.08842   0.00000  Uiso   1.00
H25    H     0.24882   0.85090  -0.33210   0.00000  Uiso   1.00
H26    H     0.39684   0.89771  -0.29946   0.00000  Uiso   1.00
H27    H     0.73997   0.79896  -0.33716   0.00000  Uiso   1.00
C28    C     0.00986   0.87518  -0.05373   0.00000  Uiso   1.00
C29    C     0.15643   0.91393  -0.14495   0.00000  Uiso   1.00
C30    C     0.07276   0.95135  -0.29637   0.00000  Uiso   1.00
O31    O    -0.04305   0.92303  -0.40307   0.00000  Uiso   1.00
O32    O     0.11304   1.00223  -0.32040   0.00000  Uiso   1.00
H33    H     0.33469   0.97873  -0.05594   0.00000  Uiso   1.00
H34    H    -0.08525   0.89894   0.00056   0.00000  Uiso   1.00
H35    H    -0.05273   0.85217  -0.14772   0.00000  Uiso   1.00
H36    H    -0.09081   0.95102  -0.49097   0.00000  Uiso   1.00
C37    C     0.24822   0.79739   0.00148   0.00000  Uiso   1.00
C38    C     0.24792   0.95248   0.00162   0.00000  Uiso   1.00
loop_
_geom_bond_atom_site_label_1
_geom_bond_atom_site_label_2
_geom_bond_distance
_geom_bond_site_symmetry_2
_ccdc_geom_bond_type
C1     C2      1.540   .     S
C1     H7      0.966   .     S
C1     H8      0.976   .     S
C1     C11     1.549   .     S
C2     C3      1.523   .     S
C2     C37     1.537   .     S
C2     C28     1.549   .     S
C3     O4      1.317   .     S
C3     O5      1.216   .     D
O4     H9      0.970   .     S
H6     C37     0.968   .     S
C10    C11     1.540   .     S
C10    H16     0.966   .     S
C10    H17     0.976   .     S
C10    C20     1.549   .     S
C11    C12     1.523   .     S
C11    C38     1.537   .     S
C12    O13     1.317   .     S
C12    O14     1.216   .     D
O13    H18     0.970   .     S
H15    C38     0.968   .     S
C19    C20     1.540   .     S
C19    H25     0.966   .     S
C19    H26     0.976   .     S
C19    C29     1.549   .     S
C20    C21     1.523   .     S
C20    C37     1.537   .     S
C21    O22     1.317   .     S
C21    O23     1.216   .     D
O22    H27     0.970   .     S
H24    C37     0.968   .     S
C28    C29     1.540   .     S
C28    H34     0.966   .     S
C28    H35     0.976   .     S
C29    C30     1.523   .     S
C29    C38     1.537   .     S
C30    O31     1.317   .     S
C30    O32     1.216   .     D
O31    H36     0.970   .     S
H33    C38     0.968   .     S
